--
-- BW TEMPERATURE TEST
--
 
RUNSPEC
 
TITLE
BW_NO TEMPERATURE TEST
 
START
 1 'MAY' 2006 /
 
METRIC
 
UNIFIN
 
UNIFOUT
 
OIL
 
WATER

SURFACT

ENDSCALE
 /

TEMP
 
 
RSSPEC
 
NOINSPEC
 
MSGFILE
 1 /
 
AQUDIMS
 0 0 0 0 1 19278 0 1 /
 
DIMENS
 64 44 42 /
 
EQLDIMS
1 100 20 1 20 /
 
REGDIMS
1 1 0 0 /
 
TABDIMS
1 1 20 20 1 20 20 1 /
 
WELLDIMS
 25 30 2 25 /

TRACERS
1 1 /  
 
GRID
 
INIT
 

NOECHO
PINCH
-- 
-- Generate Pinch-Out Connections
-- 
         1* / 


 
INCLUDE
'INCLUDES/polymers_grid.inc' /


 
PROPS

ENPTRC
SURFACTANT SOWCR
0.0         0.20
10          0.10 /
/
 
SPECHEAT
  0  1.7 4.2 1.6
  90 1.7 4.2 1.6
/

SPECROCK
  0  2300
  90 2300
/

VISCREF
  207 1.27
/

OILVISCT
  10 14.86426347
  20 10.27752947
  30 7.106145035
  40 4.913369247
  50 3.397228348
  60 2.348930005
  70 1.624109893
  80 1.301555266
  90 1.286676786
/


ROCK
         207    5e-005
/
 
RSCONSTT
-- 
-- Constant Rs per PVT Region
-- 
       62.06         1
/
 
PVTW
-- 
-- Water PVT Properties
-- 
         207        1*    1e-005       0.3        1*
/
 
PVCDO
-- 
-- Dead Oil PVT Properties
-- 
       207   1.214 0.000125   1.142      1*
/
 
DENSITY
-- 
-- Fluid Densities at Surface Conditions
-- 
         842      1017         1
/

SWOF
-- 
-- Water/Oil Saturation Functions
-- 
             0           0           1        4.87
          0.15           0           1         2.5
           0.2           0           1        1.71
           0.3        0.01       0.576        1.06
           0.4       0.013        0.27        0.57
           0.5       0.021        0.09       0.312
           0.6        0.03        0.05       0.224
           0.8        0.15           0        0.11
             1           1           0           0
/

TRACER
BW WAT/
/

TRACERM
BW /
/

TRMMULTC
BW
0	               1
0.05               0.3
0.1                0.25
0.15               0.2
0.2                0.15
0.25               0.1
0.3                0.09
0.35               0.08
0.4                0.07 /
/

TRMTEMP
BW
10                 1
20                 0.9
60                 0.5 
70                 0.4
90                 0.3 /
/

TRMMULTT
BW
0	                1
3.061224489795918	0.8990642056697403
6.122448979591836	0.7962725072187497
9.183673469387754	0.7916712343238862
12.24489795918367	0.7853352546682758
15.30612244897959	0.7773646683034034
18.36734693877551	0.7678805819485132
21.42857142857143	0.7570202978345286
24.48979591836735	0.7449322662115945
27.55102040816326	0.7317711267539488
30.61224489795918	0.7176931106789367
33.6734693877551	0.7028520042840851
36.73469387755102	0.5873957978637556
39.79591836734694	0.5714640717441984
42.85714285714285	0.5551861104941366
45.91836734693877	0.5386796908513356
48.97959183673469	0.5220504592181088
52.04081632653061	0.5053917992445806
55.10204081632653	0.4887850863274115
58.16326530612245	0.4723002306455201
61.22448979591837	0.4559964205968497
64.28571428571428	0.4399229916143659
67.3469387755102	0.4241203593493263
70.40816326530611	0.408620969744683
73.46938775510203	0.3934502307386711
76.53061224489795	0.378627400811418
79.59183673469387	0.3641664181882835
82.65306122448979	0.3500766613110123
85.71428571428571	0.3363636363636364
88.77551020408163	0.3230295914296082
91.83673469387755	0.310074059507547
94.89795918367346	0.2974943343602477
97.95918367346938	0.2852858842240568
101.0204081632653	0.2734427089403933
104.0816326530612	0.2619576462327128
107.1428571428571	0.2508226327552436
110.2040816326531	0.2400289252726926
113.265306122449	0.2295672869592606
116.3265306122449	0.2194281433792332
119.3877551020408	0.2096017122646298
122.4489795918367	0.2000781107615357
125.5102040816327	0.1908474433912832
128.5714285714286	0.18189987357506
131.6326530612245	0.1732256812059082
134.6938775510204	0.1648153084225385
137.7551020408163	0.1566593954449271
140.8163265306122	0.1487488080709682
143.8775510204081	0.1410746582043866
146.938775510204	0.1336283185840711
149.9999999999999	0.1264014327112211 /
/

REGIONS
 
SOLUTION

RTEMPA
90 /
/
 
ECHO
EQUIL
-- 
-- Equilibration Data Specification
-- 
    2208     122    2216      1*    1300      1*      1*      1*      1*      1*      1*
/
 
 
ECHO
RPTSOL
-- 
-- Initialisation Print Output
-- 
'RESTART=1' 'FIP=2' /
 
ECHO
AQUANCON
-- 
-- Aquifer Connections
-- 
     1     1     1     1    44     1    42 'I-'          1*          1* 'NO'  /
     1    64    64     1    44     1    42 'I+'          1*          1* 'NO'  /
     1     1    64     1     1     1    42 'J-'          1*          1* 'NO'  /
     1     1    64    44    44     1    42 'J+'          1*          1* 'NO'  /
/
 
AQUFETP
-- 
-- Fetkovich Aquifer
-- 
             1        2208      207.64   700000000      5e-005        1000           1          1*    /
 


 
SUMMARY 
INCLUDE
'INCLUDES/SUMMARY.INC' /
 
SCHEDULE
 
RPTRST
 'BASIC=3' 'FREQ=1' /

RPTSCHED
 'WELLS=2' 'SUMMARY=2' 'fip=3' 'RESTART=1' 'WELSPECS' 'CPU=2' /


DATES
 01 'JUN' 2006 /
/

WELSPECS
-- name   group   iw   jw   ref.depth   phase
 '753R' 'ALL' 47 18 1* 'OIL' 1* 1* 1* 1* 1* 1* /
/

COMPDAT
-- wname   iw   jw   kw1   kw2   status   filt.tbl.   pi   diameter   kh   skin   D-factor   direction
 '753R' 47 18 17 17 'OPEN' 1* 1* 0.2 1* -0.005 1* 'Z' 1* /
 '753R' 47 18 18 18 'OPEN' 1* 1* 0.2 1* -0.008 1* 'Z' 1* /
 '753R' 47 18 19 19 'OPEN' 1* 1* 0.2 1* 0.346 1* 'Z' 1* /
 '753R' 47 18 19 20 'OPEN' 1* 1* 0.2 1* 0 1* 'Z' 1* /
 '753R' 47 18 19 21 'OPEN' 1* 1* 0.2 1* 0 1* 'Z' 1* /
 '753R' 47 18 19 22 'OPEN' 1* 1* 0.2 1* 0 1* 'Z' 1* /
 '753R' 47 18 19 23 'OPEN' 1* 1* 0.2 1* 0 1* 'Z' 1* /
 '753R' 47 18 19 24 'OPEN' 1* 1* 0.2 1* 0 1* 'Z' 1* /
 '753R' 47 18 19 25 'OPEN' 1* 1* 0.2 1* 0 1* 'Z' 1* /
 '753R' 47 18 19 26 'OPEN' 1* 1* 0.2 1* 0 1* 'Z' 1* /
 '753R' 47 18 19 27 'OPEN' 1* 1* 0.2 1* 0 1* 'Z' 1* /
/

WCONHIST
-- name   status   control   oil-rate   water-rate   gas-rate   VFP-table  artificial-lift   THP  BHP wet-gas-rate
 '753R' 'OPEN' 'ORAT' 0 0 0 1* 1* 1* 1* 1* /
/

WEFAC
-- name   coeff
 '753R' 1 1* /
/


DATES
 01 'JUL' 2006 /
/

WELSPECS
-- name   group   iw   jw   ref.depth   phase
 '831E' 'ALL' 43 15 1* 'OIL' 1* 1* 1* 1* 1* 1* /
/

COMPDAT
-- wname   iw   jw   kw1   kw2   status   filt.tbl.   pi   diameter   kh   skin   D-factor   direction
 '831E' 43 15 16 16 'OPEN' 1* 1* 0.2 1* 0.53 1* 'X' 1* /
 '831E' 43 15 17 17 'OPEN' 1* 1* 0.2 1* 0.818 1* 'X' 1* /
 '831E' 43 15 18 18 'OPEN' 1* 1* 0.2 1* 0.709 1* 'X' 1* /
 '831E' 42 15 18 18 'OPEN' 1* 1* 0.2 1* 0.595 1* 'X' 1* /
 '831E' 42 15 19 19 'OPEN' 1* 1* 0.2 1* 9.533 1* 'X' 1* /
 '831E' 41 15 19 19 'OPEN' 1* 1* 0.2 1* 9.499 1* 'X' 1* /
 '831E' 41 16 19 19 'OPEN' 1* 1* 0.2 1* 22.316 1* 'X' 1* /
 '831E' 40 16 19 19 'OPEN' 1* 1* 0.2 1* 5.847 1* 'X' 1* /
/

WPIMULT
-- name   pi_mult  iw   jw   kw
 '831E' 0.5 1* 1* 1* 1* 1* /
/

WCONHIST
-- name   status   control   oil-rate   water-rate   gas-rate   VFP-table  artificial-lift   THP  BHP wet-gas-rate
 '831E' 'OPEN' 'ORAT' 143.112 17.917 0 1* 1* 1* 1* 1* /
/

WEFAC
-- name   coeff
 '831E' 0.4 1* /
/

DATES
 01 'AUG' 2006 /
/

WCONHIST
-- name   status   control   oil-rate   water-rate   gas-rate   VFP-table  artificial-lift   THP  BHP wet-gas-rate
 '831E' 'OPEN' 'ORAT' 142.978 0.742 0 1* 1* 1* 1* 1* /
/

WEFAC
-- name   coeff
 '831E' 1 1* /
/

DATES
 01 'SEP' 2006 /
/

WELSPECS
-- name   group   iw   jw   ref.depth   phase
 '834E' 'ALL' 43 20 1* 'OIL' 1* 1* 1* 1* 1* 1* /
/

COMPDAT
-- wname   iw   jw   kw1   kw2   status   filt.tbl.   pi   diameter   kh   skin   D-factor   direction
 '834E' 39 21 17 17 'OPEN' 1* 1* 0.2 1037.9 8.169 1* 'X' 1* /
 '834E' 39 21 18 18 'OPEN' 1* 1* 0.2 1677.47 15.381 1* 'X' 1* /
 '834E' 39 20 18 18 'OPEN' 1* 1* 0.2 1697.462 105.881 1* 'X' 1* /
 '834E' 39 20 19 19 'OPEN' 1* 1* 0.2 795.546 11.026 1* 'X' 1* /
 '834E' 40 20 21 21 'OPEN' 1* 1* 0.2 1338.574 5.211 1* 'X' 1* /
 '834E' 40 20 20 20 'OPEN' 1* 1* 0.2 1232.137 10.824 1* 'X' 1* /
 '834E' 40 20 19 19 'OPEN' 1* 1* 0.2 3974.815 28.467 1* 'X' 1* /
 '834E' 40 20 18 18 'OPEN' 1* 1* 0.2 1799.714 27.876 1* 'X' 1* /
 '834E' 40 20 17 17 'OPEN' 1* 1* 0.2 1186.306 29.451 1* 'X' 1* /
 '834E' 41 20 17 17 'OPEN' 1* 1* 0.2 1310.902 31.536 1* 'X' 1* /
 '834E' 41 20 18 18 'OPEN' 1* 1* 0.2 1891.365 26.813 1* 'X' 1* /
 '834E' 42 20 18 18 'OPEN' 1* 1* 0.2 1964.65 17.711 1* 'X' 1* /
 '834E' 43 20 18 18 'OPEN' 1* 1* 0.2 2009.736 647.87 1* 'X' 1* /
 '834E' 43 20 17 17 'OPEN' 1* 1* 0.2 1560.716 22.608 1* 'X' 1* /
/

WCONHIST
-- name   status   control   oil-rate   water-rate   gas-rate   VFP-table  artificial-lift   THP  BHP wet-gas-rate
 '753R' 'OPEN' 'ORAT' 0 0 0 1* 1* 1* 1* 1* /
 '831E' 'OPEN' 'ORAT' 83.69 1.733 0 1* 1* 1* 1* 1* /
 '834E' 'OPEN' 'ORAT' 332.542 59 0 1* 1* 1* 1* 1* /
/

WEFAC
-- name   coeff
 '753R' 1 1* /
 '831E' 1 1* /
 '834E' 0.033 1* /
/

DATES
 1 'OCT' 2006 /
/

WELOPEN
-- well_name  open/shut_flag iw jw kw
 '834E' 'SHUT' 0 0 0 1* 1* /
/

COMPDAT
-- wname   iw   jw   kw1   kw2   status   filt.tbl.   pi   diameter   kh   skin   D-factor   direction
 '834E' 39 21 17 17 'OPEN' 1* 1* 0.2 1037.9 8.169 1* 'X' 1* /
 '834E' 39 21 18 18 'OPEN' 1* 1* 0.2 1677.47 15.381 1* 'X' 1* /
 '834E' 39 20 18 18 'OPEN' 1* 1* 0.2 1697.462 105.881 1* 'X' 1* /
 '834E' 39 20 19 19 'OPEN' 1* 1* 0.2 795.546 11.026 1* 'X' 1* /
 '834E' 40 20 21 21 'OPEN' 1* 1* 0.2 1338.574 5.211 1* 'X' 1* /
 '834E' 40 20 20 20 'OPEN' 1* 1* 0.2 1232.137 10.824 1* 'X' 1* /
 '834E' 40 20 19 19 'OPEN' 1* 1* 0.2 3974.815 28.467 1* 'X' 1* /
 '834E' 40 20 18 18 'OPEN' 1* 1* 0.2 1799.714 27.876 1* 'X' 1* /
 '834E' 40 20 17 17 'OPEN' 1* 1* 0.2 1186.306 29.451 1* 'X' 1* /
 '834E' 41 20 17 17 'OPEN' 1* 1* 0.2 1310.902 31.536 1* 'X' 1* /
 '834E' 41 20 18 18 'OPEN' 1* 1* 0.2 1891.365 26.813 1* 'X' 1* /
 '834E' 42 20 18 18 'OPEN' 1* 1* 0.2 1964.65 17.711 1* 'X' 1* /
 '834E' 43 20 18 18 'OPEN' 1* 1* 0.2 2009.736 647.87 1* 'X' 1* /
 '834E' 43 20 17 17 'OPEN' 1* 1* 0.2 1560.716 22.608 1* 'X' 1* /
/

WCONHIST
-- name   status   control   oil-rate   water-rate   gas-rate   VFP-table  artificial-lift   THP  BHP wet-gas-rate
 '834E' 'OPEN' 'ORAT' 332.542 59 0 1* 1* 1* 1* 1* /
/

WEFAC
-- name   coeff
 '834E' 0.033 1* /
/

DATES
 01 'NOV' 2006 /
/

WCONHIST
-- name   status   control   oil-rate   water-rate   gas-rate   VFP-table  artificial-lift   THP  BHP wet-gas-rate
 '831E' 'OPEN' 'ORAT' 83.663 1.778 0 1* 1* 1* 1* 1* /
 '834E' 'OPEN' 'ORAT' 333.078 59.484 0 1* 1* 1* 1* 1* /
/

WEFAC
-- name   coeff
 '831E' 0.29 1* /
 '834E' 1 1* /
/

DATES
 01 'DEC' 2006 /
/

WCONHIST
-- name   status   control   oil-rate   water-rate   gas-rate   VFP-table  artificial-lift   THP  BHP wet-gas-rate
 '831E' 'OPEN' 'ORAT' 100.554 10.048 0 1* 1* 1* 1* 1* /
 '834E' 'OPEN' 'ORAT' 241.246 4.968 0 1* 1* 1* 1* 1* /
/

WEFAC
-- name   coeff
 '831E' 0.677 1* /
 '834E' 1 1* /
/

DATES
 01 'JAN' 2007 /
/

WCONHIST
-- name   status   control   oil-rate   water-rate   gas-rate   VFP-table  artificial-lift   THP  BHP wet-gas-rate
 '831E' 'OPEN' 'ORAT' 77.324 18.357 0 1* 1* 1* 1* 1* /
 '834E' 'OPEN' 'ORAT' 226.066 17.174 0 1* 1* 1* 1* 1* /
/

WEFAC
-- name   coeff
 '831E' 1 1* /
 '834E' 0.821 1* /
/

DATES
 28 'FEB' 2007 /
/


WCONINJE
-- name   phase   status   control   volume_s.c.   volume_r.c.   bhp
 '753R' 'WATER' 'OPEN' 'RATE' 250 1* 1* 1* 1* /
/

WTEMP
'753R' 20 /
/

WCONPROD
-- Well Status Control Oil	Water	Gas	Liquid(s.c.)	Liquid(r.c.)	BHP
'831E'	OPEN	BHP	*	*	*	*	*	+1.43866479e+002 /
'834E'	OPEN	BHP	*	*	*	*	*	+1.11556220e+002 /
/

DATES
 28 'MAR' 2007 /
/

DATES
 28 'APR' 2007 /
/

DATES
 28 'MAY' 2007 /
/

DATES
 28 'JUN' 2007 /
/

DATES
 28 'JUL' 2007 /
/

DATES
 28 'AUG' 2007 /
/

DATES
 28 'SEP' 2007 /
/

DATES
 28 'OCT' 2007 /
/

DATES
 28 'NOV' 2007 /
 28 'DEC' 2007 /
 28 'JAN' 2008 /
 28 'FEB' 2008 /
 28 'MAR' 2008 /
 28 'APR' 2008 /
 28 'MAY' 2008 /
 28 'JUN' 2008 /
 28 'JUL' 2008 /
 28 'AUG' 2008 /
 28 'SEP' 2008 /
 28 'OCT' 2008 /
 28 'NOV' 2008 /
 28 'DEC' 2008 /
 28 'JAN' 2009 /
 28 'FEB' 2009 /
 28 'MAR' 2009 /
 28 'APR' 2009 /
 28 'MAY' 2009 /
 28 'JUN' 2009 /
 28 'JUL' 2009 /
 28 'AUG' 2009 /
 28 'SEP' 2009 /
 28 'OCT' 2009 /
 28 'NOV' 2009 /
 28 'DEC' 2009 /
 28 'JAN' 2010 /
 28 'FEB' 2010 /
 28 'MAR' 2010 /
 28 'APR' 2010 /
 28 'MAY' 2010 /
 28 'JUN' 2010 /
 28 'JUL' 2010 /
 28 'AUG' 2010 /
 28 'SEP' 2010 /
 28 'OCT' 2010 /
 28 'NOV' 2010 /
 28 'DEC' 2010 /
 28 'JAN' 2011 /
 28 'FEB' 2011 /
 28 'MAR' 2011 /
 28 'APR' 2011 /
 28 'MAY' 2011 /
 28 'JUN' 2011 /
 28 'JUL' 2011 /
 28 'AUG' 2011 /
 28 'SEP' 2011 /
 28 'OCT' 2011 /
 28 'NOV' 2011 /
 28 'DEC' 2011 /
 28 'JAN' 2012 /
 28 'FEB' 2012 /
 28 'MAR' 2012 /
 28 'APR' 2012 /
 28 'MAY' 2012 /
 28 'JUN' 2012 /
 28 'JUL' 2012 /
 28 'AUG' 2012 /
 28 'SEP' 2012 /
 28 'OCT' 2012 /
 28 'NOV' 2012 /
 28 'DEC' 2012 /
 28 'JAN' 2013 /
 28 'FEB' 2013 /
 28 'MAR' 2013 /
 28 'APR' 2013 /
 28 'MAY' 2013 /
 28 'JUN' 2013 /
 28 'JUL' 2013 /
 28 'AUG' 2013 /
 28 'SEP' 2013 /
 28 'OCT' 2013 /
 28 'NOV' 2013 /
 28 'DEC' 2013 /
 28 'JAN' 2014 /
 28 'FEB' 2014 /
 28 'MAR' 2014 /
 28 'APR' 2014 /
 28 'MAY' 2014 /
 28 'JUN' 2014 /
 28 'JUL' 2014 /
 28 'AUG' 2014 /
 28 'SEP' 2014 /
 28 'OCT' 2014 /
 28 'NOV' 2014 /
 28 'DEC' 2014 /
 28 'JAN' 2015 /
 28 'FEB' 2015 /
 28 'MAR' 2015 /
 28 'APR' 2015 /
 28 'MAY' 2015 /
 28 'JUN' 2015 /
 28 'JUL' 2015 /
 28 'AUG' 2015 /
 28 'SEP' 2015 /
 28 'OCT' 2015 /
 28 'NOV' 2015 /
 28 'DEC' 2015 /
 28 'JAN' 2016 /
 28 'FEB' 2016 /
 28 'MAR' 2016 /
 28 'APR' 2016 /
 28 'MAY' 2016 /
 28 'JUN' 2016 /
 28 'JUL' 2016 /
 28 'AUG' 2016 /
 28 'SEP' 2016 /
 28 'OCT' 2016 /
 28 'NOV' 2016 /
 28 'DEC' 2016 /
 28 'JAN' 2017 /
 28 'FEB' 2017 /
 28 'MAR' 2017 /
 28 'APR' 2017 /
 28 'MAY' 2017 /
 28 'JUN' 2017 /
 28 'JUL' 2017 /
 28 'AUG' 2017 /
 28 'SEP' 2017 /
 28 'OCT' 2017 /
 28 'NOV' 2017 /
 28 'DEC' 2017 /
 /

 
END
