
RUNSPEC

IMPES

METRIC

OIL
WATER
GAS

COMPS
10 /

TABDIMS
1 1 40 40 /

GPTDIMS
1 3 /

DIMENS
10 10 4 /

EQLDIMS
1 20 /

WELLDIMS
6 /

UNIFOUT


TITLE
Example of use of gas plants

START
1 Jan 1990 /

--Grid section--------------------------------------------------------

GRID

EQUALS
DX 50.0 /
DY 50.0 /
DZ 10     /
PERMX 100 /
PERMY 100 /
PERMZ  50 /
PORO  0.15 /
/

TOPS
2202  2145  2105  2080  2072  2080  2105  2145  2202  2242
2170  2113  2073  2049  2041  2049  2073  2113  2170  2210
2147  2090  2050  2026  2018  2026  2050  2090  2147  2197
2133  2077  2037  2013  2005  2013  2037  2077  2133  2193
2129  2072  2032  2008  2000  2008  2032  2072  2129  2189
2133  2077  2037  2013  2005  2013  2037  2077  2133  2180
2147  2090  2050  2026  2018  2026  2050  2090  2147  2197
2170  2113  2073  2049  2041  2049  2073  2113  2170  2210
2202  2145  2105  2080  2072  2080  2105  2145  2202  2250
2232  2175  2135  2110  2112  2120  2125  2165  2242  2250
2212  2155  2115  2090  2082  2090  2115  2155  2212  2252
2180  2123  2083  2059  2051  2059  2083  2123  2180  2220
2157  2100  2060  2036  2028  2036  2060  2100  2157  2207
2143  2087  2047  2023  2015  2023  2047  2087  2143  2203
2139  2082  2042  2018  2010  2018  2042  2082  2139  2199
2143  2087  2047  2023  2015  2023  2047  2087  2143  2190
2157  2100  2060  2036  2028  2036  2060  2100  2157  2207
2180  2123  2083  2059  2051  2059  2083  2123  2180  2220
2212  2155  2115  2090  2082  2090  2115  2155  2212  2260
2242  2185  2145  2120  2122  2130  2135  2175  2252  2260
2222  2165  2125  2100  2092  2100  2125  2165  2222  2262
2190  2133  2093  2069  2061  2069  2093  2133  2190  2230
2167  2110  2070  2046  2038  2046  2070  2110  2167  2217
2153  2097  2057  2033  2025  2033  2057  2097  2153  2213
2149  2092  2052  2028  2020  2028  2052  2092  2149  2209
2153  2097  2057  2033  2025  2033  2057  2097  2153  2200
2167  2110  2070  2046  2038  2046  2070  2110  2167  2217
2190  2133  2093  2069  2061  2069  2093  2133  2190  2230
2222  2165  2125  2100  2092  2100  2125  2165  2222  2270
2252  2195  2155  2130  2132  2140  2145  2185  2262  2270
2232  2175  2135  2110  2102  2110  2135  2175  2232  2272
2200  2143  2103  2079  2071  2079  2103  2143  2200  2240
2177  2120  2080  2056  2048  2056  2080  2120  2177  2227
2163  2107  2067  2043  2035  2043  2067  2107  2163  2223
2159  2102  2062  2038  2030  2038  2062  2102  2159  2219
2163  2107  2067  2043  2035  2043  2067  2107  2163  2210
2177  2120  2080  2056  2048  2056  2080  2120  2177  2227
2200  2143  2103  2079  2071  2079  2103  2143  2200  2240
2232  2175  2135  2110  2102  2110  2135  2175  2232  2280
2262  2205  2165  2140  2142  2150  2155  2195  2272  2280 /


ADD
PERMX 32 2 3 /
/

BOX
4* 3 4 /

MULTX
200*1.4 /

MULTY
200*1.9 /

MULTZ
200*0.4 /

ENDBOX

RPTGRID
TOPS LIMITS PORV TRANX /

--Properties section-----------------------------------------------

PROPS

RTEMP
143 /

--Standard conditions for stock tank and fluid-in-place reporting

STCOND
15 1.013 /

EOS
SRK /

--Next section defines components and the equation of state
--Could be generated by PVT and entered as include file

CNAMES
N2    CO2     C1     C2     C3     HC4    HC5    HC6    HC9    HC21   /

TCRIT
126.28 304.20 190.60 305.40 369.80 419.55 465.49 507.40 594.60 767.53 /

PCRIT
33.940 73.760 46.000 48.830 42.400 37.500 33.700 29.700 28.200 14.000 /

VCRIT
0.0899 0.0939 0.0992 0.1479 0.2028 0.2573 0.3049 0.3701 0.5639 1.4691 /

VCRITVIS
0.1078 0.1127 0.1190 0.1775 0.2433 0.3087 0.3658 0.4441 0.6767 1.7691 /

MW
28.020 44.010 16.040 30.070 44.090 58.120 72.150 86.170 120.27 289.03 /

ACF
0.0400 0.2250 0.0080 0.0980 0.1520 0.1874 0.2403 0.2960 0.4906 1.1832 /

BIC
0.0
0.02  0.12
0.06  0.15   0.0
0.08  0.15 2*0.0
0.08  0.15 3*0.0
0.08  0.15 4*0.0
0.08  0.15 5*0.0
0.08  0.15 6*0.0
0.08  0.15 7*0.0 /


SWFN
0.221  0      0.0
0.250  0.01   0.0
0.300  0.03   0.0
0.400  0.07   0.0
0.500  0.13   0.0
0.547  0.163  0.0
0.570  0.174  0.0
0.582  0.179  0.0
0.614  0.202  0.0
0.681  0.275  0.0
0.731  0.360  0.0
1.000  1.0    0.0 /

SGFN
0.000 0.000  0.0
0.030 0.000  0.0
0.110 0.0245 0.0
0.244 0.0791 0.0
0.307 0.1212 0.0
0.369 0.1805 0.0
0.435 0.2684 0.0
0.459 0.3320 0.0
0.491 0.3701 0.0
0.779 0.6890 0.0 /

SOF3
0.00  0.00000   0.0000
0.269 0.00000   0.0000
0.288 1*        0.0000
0.294 0.00005   1*
0.299 0.00006   1*
0.301 1*        0.0008
0.304 0.00008   1*
0.319 0.00017   1*
0.320 1*        0.0014
0.330 0.00030   1*
0.342 0.00054   1*
0.344 1*        0.0022
0.355 0.00115   1*
0.386 0.00348   1*
0.410 1*        0.0082
0.418 0.0088    1*
0.430 0.01328   1*
0.453 0.01831   1*
0.472 1*        0.0206
0.500 0.035     1*
0.535 1*        0.0514
0.600 0.095     1*
0.669 1*        0.3650
0.700 0.22      1*
0.749 1*        0.760
0.750 0.47      1*
0.779 1.00      1.000 /

ROCK
459 0.00005 /

PVTW
459 1.0 0.00004 0.31 0.0 /

--Initial composition with respect to depth

ZMFVD
  100.0 0.0053 0.173  0.60973 0.06679 0.031
        0.0212 0.0121 0.0085  0.05219 0.02019
10000.0 0.0053 0.173  0.60973 0.06679 0.031
        0.0212 0.0121 0.0085  0.05219 0.02019 /

DENSITY
1* 1000.00 1* /

--Solution section------------------------------------------------------

SOLUTION

GPTABLEN
1 9 9
   0.0  0.00 0.00 0.00 0.00033  0.05  0.1   1.0  1.0  1.0 1.0
        0.01 0.01 0.01 0.05000  0.02  0.01  0.0  0.0  0.0 0.0
   0.2  0.00 0.00 0.00 0.00034  0.05  0.1   1.0  1.0  1.0 1.0
        0.01 0.01 0.01 0.05000  0.02  0.01  0.0  0.0  0.0 0.0
/

FIELDSEP
1 15 1.03 3* 1 /
/

RPTRST
PRESSURE SOIL SGAS DENO DENW DENG /

RPTSOL
PRESSURE SOIL PSAT SWAT SGAS /


EQUIL
2300 459 2300 0 2300 0 1 1 0 /

SUMMARY

FCNMR
/

ALL

FGOR
WGOR
P1 /
WNLPR
P1 /
WNLPT
P1 /
FNLPR
FNLPT
WGOR
P2 /
WGOR
P3 /
WGOR
P4 /
FGOR
FPR

WCMPR
/
/

WCMPT
/
/

WCOMR
/
/

WCOMT
/
/

WCGMR
/
/

WCGMT
/
/

BSOIL
1 1 1 /
/
BSOIL
10 10 4 /
/
BPRES
1 1 1 /
/
BPRES
10 10 4 /
/

RUNSUM

--Schedule section------------------------------------------------------

SCHEDULE

RPTSCHED
PRESSURE PSAT SOIL VGAS /

RPTPRINT
1 1 1 1 1 1 1 1 0 0 /

SEPCOND
S1 GA 1 15 1.03 3* 1 /
/

WELSPECS
I1 * 1 1 1* GAS /
I2 * 1 2 1* GAS /
P1 * 3 3 1* GAS /
P2 * 4 4 1* GAS /
P3 * 5 5 1* GAS /
P4 * 6 6 1* GAS /
/

WSEPCOND
P1 S1 /
P2 S1 /
P3 S1 /
P4 S1 /
/

COMPDAT
I1 1 1 1 2 1* 1 /
I2 1 2 1 2 1* 1 /
P1 2*  2 2 1* 1 /
P2 2*  2 2 1* 1 /
P3 2*  2 2 1* 1 /
P4 2*  2 2 1* 1 /
/

WCONPROD
P1 OPEN GRAT 2* 6400 2* 50 /
P2 OPEN GRAT 2* 6400 2* 50 /
P3 OPEN GRAT 2* 6400 2* 50 /
P4 OPEN GRAT 2* 6400 2* 50 /
/

WELLSTRE
ING 0.0 1.0 /
/

WCONINJE
I1 GAS OPEN GRUP 2* 1000 /
I2 GAS OPEN GRUP 2* 1000 /
/

GCONINJE
'FIELD'	GAS	REIN	2*	1	/
/

WINJGAS
I1 STREAM ING /
I2 STREAM ING /
/

TSCRIT
1 /

DATES
1 Feb 1990 /
1 Mar 1990 /
1 Apr 1990 /
/

TSTEP
10 /

DATES
1 Jan 1991 /
/

WELOPEN
P1 OPEN/
P2 OPEN/
/

DATES
1 Jan 1992 /
/

DATES
1 Jan 1993 /
/

DATES
1 Jan 1994 /
/

DATES
1 Jan 1995 /
/

DATES
1 Jan 1996 /
/

DATES
1 Jan 1997 /
/

DATES
1 Jan 1998 /
/

DATES
1 Jan 1999 /
/

DATES
1 Jan 2000 /
/

DATES
1 Jan 2001 /
/

DATES
1 Jan 2002 /
/

DATES
1 Jan 2003 /
/

DATES
1 Jan 2004 /
/

DATES
1 Jan 2005 /
/

DATES
1 Jan 2006 /
/

DATES
1 Jan 2007 /
/

DATES
1 Jan 2008 /
/

DATES
1 Jan 2009 /
/

DATES
1 Jan 2010 /
/

DATES
1 Jan 2011 /
/

DATES
1 Jan 2012 /
/

DATES
1 Jan 2013 /
/

DATES
1 Jan 2014 /
/

DATES
1 Jan 2015 /
/

DATES
1 Jan 2016 /
/

DATES
1 Jan 2017 /
/

DATES
1 Jan 2018 /
/

END
