-- This file has been generated by tNavigator v19.4m-5205-g3e31dd7bc0b.
-- Copyright (C) RFDynamics 2005-2020.
-- All rights reserved.

-- Model name: 
-- DynamicModel

-- Project: 
-- E:/DATA/19.4/APPLYSCRIPT/Example1/22808_2.snp


RUNSPEC

TNAVCTRL
 LONGNAMES YES  /
 /


RUNCTRL
 CHECKSAT 0
/


TITLE
DynamicModel

START
 01 JAN 2020 /


WATER


GAS


METRIC


DIMENS
 11 11 15 /


TABDIMS
 1 1  1*  1*  1*  1*  1*  1*  4* 1  /

WELLDIMS
 4* 0 /

EQLDIMS
 1 /


UNIFOUT


GRID
INCLUDE
'INCLUDE/Example1_GRID.inc' /

EDIT

PROPS
INCLUDE
'INCLUDE/Example1_PROPS.inc' /


SOLUTION
INCLUDE
'INCLUDE/Example1_SOLUTION.inc' /


SUMMARY
INCLUDE
'INCLUDE/Example1_SUMMARY.inc' /


SCHEDULE
INCLUDE
'INCLUDE/Example1_SCHEDULE.inc' /

