-- This file has been generated by tNavigator v19.3m-5185-g293cd502b2a 
-- Copyright (C) RFDynamics 2005-2019.
-- All rights reserved.

-- Model name: 
-- DynamicModel


RUNSPEC

TNAVCTRL
 LONGNAMES YES  /
 /


TITLE
DynamicModel

START
 01 JAN 2020 /


OIL


WATER


GAS


DISGAS


METRIC


DIMENS
 30 30 5 /


TABDIMS
 1 1  1*  1*  1*  1*  1*  1*  4* 1  /

WELLDIMS
 4* 0 /

EQLDIMS
 1 /


UNIFOUT


GRID
INCLUDE
'INCLUDE/Example3_GRID.inc' /


EDIT


PROPS
INCLUDE
'INCLUDE/Example3_PROPS.inc' /


REGIONS


SOLUTION
INCLUDE
'INCLUDE/Example3_SOLUTION.inc' /


SUMMARY


SCHEDULE
INCLUDE
'INCLUDE/Example3_SCHEDULE.inc' /

