-- This file has been generated by tNavigator v19.4m-4990-gf73506a3696.
-- Copyright (C) RFDynamics 2005-2020.
-- All rights reserved.

RUNSPEC

TITLE
   WELLTRACK COMPDATMD test

START
 01 OCT 2008 /


OIL


WATER


GAS


DISGAS


METRIC


DIMENS
 16 12 46 /


TABDIMS
 1 1 22  1* 50  1*  1*  1*  4*  1*  /

REGDIMS
 1 2 /


EQLDIMS
 2 /


UNIFOUT


GRID
INCLUDE
'INCLUDE/Example2_GRID.inc' /


PROPS
INCLUDE
'INCLUDE/Example2_PROPS.inc' /


REGIONS
INCLUDE
'INCLUDE/Example2_REGIONS.inc' /


SOLUTION
INCLUDE
'INCLUDE/Example2_SOLUTION.inc' /


SUMMARY


SCHEDULE
INCLUDE
'INCLUDE/Example2_SCHEDULE.inc' /

